<?xml version="1.0" encoding="UTF-8"?>

<!-- generated on 03/18/20 16:07:01 by Eclipse SUMO netedit Version v1_5_0+0665-55dcebcdd2
<configuration xmlns:xsi="http://www.w3.org/2001/XMLSchema-instance" xsi:noNamespaceSchemaLocation="http://sumo.dlr.de/xsd/netconvertConfiguration.xsd">

    <input>
        <sumo-net-file value="D:\Project\Traffic-Optimisation\Foothill\optimization\foothill.net.xml"/>
    </input>

    <output>
        <output-file value="D:\Project\Traffic-Optimisation\Foothill\optimization\foothill.net.xml"/>
        <output.street-names value="true"/>
    </output>

    <processing>
        <geometry.min-radius.fix.railways value="false"/>
        <geometry.max-grade.fix value="false"/>
        <offset.disable-normalization value="true"/>
        <lefthand value="false"/>
    </processing>

    <junctions>
        <no-internal-links value="false"/>
        <no-turnarounds value="true"/>
        <junctions.corner-detail value="5"/>
        <junctions.limit-turn-speed value="5.5"/>
        <rectangular-lane-cut value="false"/>
    </junctions>

    <pedestrian>
        <walkingareas value="false"/>
    </pedestrian>

    <report>
        <aggregate-warnings value="5"/>
    </report>

</configuration>
-->

<net version="1.6" junctionCornerDetail="5" limitTurnSpeed="5.50" xmlns:xsi="http://www.w3.org/2001/XMLSchema-instance" xsi:noNamespaceSchemaLocation="http://sumo.dlr.de/xsd/net_file.xsd">

    <location netOffset="-425453.46,-4507169.89" convBoundary="0.00,470.43,14077.70,8138.44" origBoundary="-111.883195,40.712660,-111.716688,40.786539" projParameter="+proj=utm +zone=12 +ellps=WGS84 +datum=WGS84 +units=m +no_defs"/>

    <type id="highway.bridleway" priority="1" numLanes="1" speed="2.78" allow="pedestrian" oneway="1" width="2.00"/>
    <type id="highway.bus_guideway" priority="1" numLanes="1" speed="27.78" allow="bus" oneway="1"/>
    <type id="highway.cycleway" priority="1" numLanes="1" speed="8.33" allow="bicycle" oneway="0" width="1.00"/>
    <type id="highway.footway" priority="1" numLanes="1" speed="2.78" allow="pedestrian" oneway="1" width="2.00"/>
    <type id="highway.ford" priority="1" numLanes="1" speed="2.78" allow="army" oneway="0"/>
    <type id="highway.living_street" priority="2" numLanes="1" speed="2.78" disallow="tram rail_urban rail rail_electric rail_fast ship" oneway="0"/>
    <type id="highway.motorway" priority="14" numLanes="2" speed="39.44" allow="private emergency authority army vip passenger hov taxi bus coach delivery truck trailer motorcycle evehicle custom1 custom2" oneway="1"/>
    <type id="highway.motorway_link" priority="9" numLanes="1" speed="22.22" allow="private emergency authority army vip passenger hov taxi bus coach delivery truck trailer motorcycle evehicle custom1 custom2" oneway="1"/>
    <type id="highway.path" priority="1" numLanes="1" speed="2.78" allow="pedestrian bicycle" oneway="1" width="2.00"/>
    <type id="highway.pedestrian" priority="1" numLanes="1" speed="2.78" allow="pedestrian" oneway="1" width="2.00"/>
    <type id="highway.primary" priority="12" numLanes="2" speed="27.78" disallow="tram rail_urban rail rail_electric rail_fast ship" oneway="0"/>
    <type id="highway.primary_link" priority="7" numLanes="1" speed="22.22" disallow="tram rail_urban rail rail_electric rail_fast ship" oneway="0"/>
    <type id="highway.raceway" priority="15" numLanes="2" speed="83.33" allow="vip" oneway="0"/>
    <type id="highway.residential" priority="3" numLanes="1" speed="13.89" disallow="tram rail_urban rail rail_electric rail_fast ship" oneway="0"/>
    <type id="highway.secondary" priority="11" numLanes="1" speed="27.78" disallow="tram rail_urban rail rail_electric rail_fast ship" oneway="0"/>
    <type id="highway.secondary_link" priority="6" numLanes="1" speed="22.22" disallow="tram rail_urban rail rail_electric rail_fast ship" oneway="0"/>
    <type id="highway.service" priority="1" numLanes="1" speed="5.56" allow="pedestrian delivery bicycle" oneway="0"/>
    <type id="highway.stairs" priority="1" numLanes="1" speed="1.39" allow="pedestrian" oneway="1" width="2.00"/>
    <type id="highway.step" priority="1" numLanes="1" speed="1.39" allow="pedestrian" oneway="1" width="2.00"/>
    <type id="highway.steps" priority="1" numLanes="1" speed="1.39" allow="pedestrian" oneway="1" width="2.00"/>
    <type id="highway.tertiary" priority="10" numLanes="1" speed="22.22" disallow="tram rail_urban rail rail_electric rail_fast ship" oneway="0"/>
    <type id="highway.tertiary_link" priority="5" numLanes="1" speed="22.22" disallow="tram rail_urban rail rail_electric rail_fast ship" oneway="0"/>
    <type id="highway.track" priority="1" numLanes="1" speed="5.56" disallow="tram rail_urban rail rail_electric rail_fast ship" oneway="0"/>
    <type id="highway.trunk" priority="13" numLanes="2" speed="27.78" disallow="pedestrian bicycle tram rail_urban rail rail_electric rail_fast ship" oneway="0"/>
    <type id="highway.trunk_link" priority="8" numLanes="1" speed="22.22" disallow="pedestrian bicycle tram rail_urban rail rail_electric rail_fast ship" oneway="0"/>
    <type id="highway.unclassified" priority="4" numLanes="1" speed="13.89" disallow="tram rail_urban rail rail_electric rail_fast ship" oneway="0"/>
    <type id="highway.unsurfaced" priority="1" numLanes="1" speed="8.33" disallow="tram rail_urban rail rail_electric rail_fast ship" oneway="0"/>
    <type id="railway.highspeed" priority="21" numLanes="1" speed="69.44" allow="rail_fast" oneway="1"/>
    <type id="railway.light_rail" priority="19" numLanes="1" speed="27.78" allow="rail_urban" oneway="1"/>
    <type id="railway.preserved" priority="16" numLanes="1" speed="27.78" allow="rail" oneway="1"/>
    <type id="railway.rail" priority="20" numLanes="1" speed="44.44" allow="rail" oneway="1"/>
    <type id="railway.subway" priority="18" numLanes="1" speed="27.78" allow="rail_urban" oneway="1"/>
    <type id="railway.tram" priority="17" numLanes="1" speed="13.89" allow="tram" oneway="1"/>

    <edge id=":1218569143_w0" function="walkingarea">
        <lane id=":1218569143_w0_0" index="0" allow="pedestrian" speed="1.00" length="0.10" width="3.20" shape="2472.58,5122.01 2472.51,5118.81 2472.51,5118.81 2472.43,5115.61 2472.43,5115.61 2472.36,5112.41"/>
    </edge>
    <edge id=":1218569371_0" function="internal">
        <lane id=":1218569371_0_0" index="0" disallow="tram rail_urban rail rail_electric rail_fast ship" speed="17.88" length="7.89" shape="2677.00,5110.66 2685.05,5111.03"/>
        <lane id=":1218569371_0_1" index="1" disallow="tram rail_urban rail rail_electric rail_fast ship" speed="17.88" length="7.89" shape="2676.94,5113.86 2684.82,5114.22"/>
        <lane id=":1218569371_0_2" index="2" disallow="tram rail_urban rail rail_electric rail_fast ship" speed="17.88" length="7.89" shape="2676.88,5117.06 2684.58,5117.41"/>
    </edge>
    <edge id=":1218569371_w0" function="walkingarea">
        <lane id=":1218569371_w0_0" index="0" allow="pedestrian" speed="1.00" length="8.06" width="3.20" shape="2684.46,5119.01 2684.70,5115.82 2684.70,5115.82 2684.93,5112.63 2684.93,5112.63 2685.17,5109.44 2677.02,5109.06 2676.97,5112.26 2676.97,5112.26 2676.91,5115.46 2676.91,5115.46 2676.85,5118.66 2676.85,5118.66 2676.79,5121.86 2682.76,5119.12 2681.57,5119.63 2680.63,5120.35 2679.69,5121.09 2678.50,5121.65"/>
    </edge>
    <edge id=":1520496352_w0" function="walkingarea">
        <lane id=":1520496352_w0_0" index="0" allow="pedestrian" speed="1.00" length="0.10" width="3.20" shape="3301.46,5218.71 3302.18,5221.83 3302.18,5221.83 3302.91,5224.94"/>
    </edge>
    <edge id=":1598951499_0" function="internal">
        <lane id=":1598951499_0_0" index="0" disallow="tram rail_urban rail rail_electric rail_fast ship" speed="17.88" length="0.57" shape="4501.07,3563.16 4501.04,3563.21 4501.02,3563.24 4501.00,3563.27 4500.98,3563.32"/>
        <lane id=":1598951499_0_1" index="1" disallow="tram rail_urban rail rail_electric rail_fast ship" speed="17.88" length="0.57" shape="4498.38,3561.43 4498.29,3561.57 4498.23,3561.67 4498.18,3561.77 4498.10,3561.92"/>
        <lane id=":1598951499_0_2" index="2" disallow="tram rail_urban rail rail_electric rail_fast ship" speed="17.88" length="0.57" shape="4495.69,3559.70 4495.54,3559.93 4495.44,3560.10 4495.35,3560.27 4495.22,3560.52"/>
    </edge>
    <edge id=":1598951499_3" function="internal">
        <lane id=":1598951499_3_0" index="0" disallow="tram rail_urban rail rail_electric rail_fast ship" speed="17.88" length="1.71" shape="4486.50,3556.28 4487.61,3554.50"/>
        <lane id=":1598951499_3_1" index="1" disallow="tram rail_urban rail rail_electric rail_fast ship" speed="17.88" length="1.71" shape="4489.40,3557.69 4490.31,3556.24"/>
        <lane id=":1598951499_3_2" index="2" disallow="tram rail_urban rail rail_electric rail_fast ship" speed="17.88" length="1.71" shape="4492.30,3559.10 4493.00,3557.97"/>
    </edge>
    <edge id=":1598951499_w0" function="walkingarea">
        <lane id=":1598951499_w0_0" index="0" allow="pedestrian" speed="1.00" length="11.09" width="3.20" shape="4502.42,3564.02 4499.73,3562.29 4499.73,3562.29 4497.03,3560.56 4497.03,3560.56 4494.34,3558.83 4494.34,3558.83 4491.65,3557.10 4491.65,3557.10 4488.96,3555.37 4488.96,3555.37 4486.27,3553.64 4485.16,3555.41 4487.84,3557.15 4488.06,3556.82 4490.74,3558.56 4490.95,3558.23 4493.64,3559.97 4493.78,3559.82 4496.66,3561.22 4496.66,3561.22 4499.54,3562.62 4499.54,3562.62 4502.42,3564.02"/>
    </edge>
    <edge id=":1598951527_0" function="internal">
        <lane id=":1598951527_0_0" index="0" disallow="tram rail_urban rail rail_electric rail_fast ship" speed="17.88" length="9.29" shape="4399.22,4363.95 4394.37,4371.87"/>
    </edge>
    <edge id=":1598951527_1" function="internal">
        <lane id=":1598951527_1_0" index="0" disallow="tram rail_urban rail rail_electric rail_fast ship" speed="17.88" length="11.08" shape="4396.98,4360.45 4391.59,4370.29"/>
        <lane id=":1598951527_1_1" index="1" disallow="tram rail_urban rail rail_electric rail_fast ship" speed="17.88" length="11.08" shape="4394.14,4358.99 4388.81,4368.70"/>
        <lane id=":1598951527_1_2" index="2" disallow="tram rail_urban rail rail_electric rail_fast ship" speed="17.88" length="11.08" shape="4391.29,4357.52 4386.03,4367.12"/>
    </edge>
    <edge id=":1598951527_w0" function="walkingarea">
        <lane id=":1598951527_w0_0" index="0" allow="pedestrian" speed="1.00" length="8.39" width="3.20" shape="4400.57,4364.82 4397.88,4363.08 4398.41,4361.18 4395.56,4359.72 4395.56,4359.72 4392.71,4358.25 4392.71,4358.25 4389.87,4356.79 4384.64,4366.33 4387.42,4367.91 4387.42,4367.91 4390.20,4369.49 4390.20,4369.49 4392.98,4371.08 4392.98,4371.08 4395.76,4372.66"/>
    </edge>
    <edge id=":1598951530_0" function="internal">
        <lane id=":1598951530_0_0" index="0" disallow="pedestrian tram rail_urban rail rail_electric rail_fast ship" speed="17.88" length="8.69" shape="3933.55,5002.00 3935.11,4999.80 3935.23,4997.59 3935.36,4995.40 3936.95,4993.24"/>
        <lane id=":1598951530_0_1" index="1" disallow="pedestrian tram rail_urban rail rail_electric rail_fast ship" speed="17.88" length="8.69" shape="3933.55,5002.00 3935.29,5000.30 3936.21,4998.86 3937.15,4997.44 3938.90,4995.77"/>
        <lane id=":1598951530_0_2" index="2" disallow="pedestrian tram rail_urban rail rail_electric rail_fast ship" speed="17.88" length="8.69" shape="3935.55,5004.50 3937.27,5002.81 3938.19,5001.38 3939.11,4999.97 3940.86,4998.31"/>
        <lane id=":1598951530_0_3" index="3" disallow="pedestrian tram rail_urban rail rail_electric rail_fast ship" speed="17.88" length="8.69" shape="3937.54,5007.00 3939.25,5005.32 3940.16,5003.90 3941.08,5002.49 3942.81,5000.84"/>
        <lane id=":1598951530_0_4" index="4" disallow="pedestrian tram rail_urban rail rail_electric rail_fast ship" speed="17.88" length="8.69" shape="3937.54,5007.00 3939.55,5005.72 3941.14,5005.17 3942.73,5004.63 3944.76,5003.37"/>
        <lane id=":1598951530_0_5" index="5" disallow="pedestrian tram rail_urban rail rail_electric rail_fast ship" speed="17.88" length="8.69" shape="3937.54,5007.00 3939.99,5006.01 3942.11,5006.43 3944.25,5006.86 3946.72,5005.91"/>
    </edge>
    <edge id=":1598951530_w0" function="walkingarea">
        <lane id=":1598951530_w0_0" index="0" allow="pedestrian" speed="1.00" length="0.10" width="3.20" shape="3947.69,5007.18 3945.74,5004.64 3945.74,5004.64 3943.79,5002.11 3943.79,5002.11 3941.83,4999.57 3941.83,4999.57 3939.88,4997.04 3939.88,4997.04 3937.93,4994.50 3937.93,4994.50 3935.97,4991.97"/>
    </edge>
    <edge id=":1830386456_w0" function="walkingarea">
        <lane id=":1830386456_w0_0" index="0" allow="pedestrian" speed="1.00" length="3.20" width="3.20" shape="5024.40,3303.10 5023.98,3306.27 5024.82,3299.93 5024.40,3303.10"/>
    </edge>
    <edge id=":1832170468_w0" function="walkingarea">
        <lane id=":1832170468_w0_0" index="0" allow="pedestrian" speed="1.00" length="3.20" width="3.20" shape="3208.28,5207.03 3205.21,5207.95 3211.35,5206.11 3208.28,5207.03"/>
    </edge>
    <edge id=":2176654931_0" function="internal">
        <lane id=":2176654931_0_0" index="0" disallow="tram rail_urban rail rail_electric rail_fast ship" speed="17.88" length="8.08" shape="5245.21,2398.15 5240.66,2404.91"/>
        <lane id=":2176654931_0_1" index="1" disallow="tram rail_urban rail rail_electric rail_fast ship" speed="17.88" length="8.08" shape="5242.52,2396.42 5238.04,2403.06"/>
    </edge>
    <edge id=":2176654931_2" function="internal">
        <lane id=":2176654931_2_0" index="0" disallow="tram rail_urban rail rail_electric rail_fast ship" speed="17.88" length="8.34" shape="5232.81,2399.38 5233.76,2397.16 5233.68,2395.34 5233.57,2393.50 5234.44,2391.23"/>
        <lane id=":2176654931_2_1" index="1" disallow="tram rail_urban rail rail_electric rail_fast ship" speed="17.88" length="8.34" shape="5235.42,2401.22 5236.40,2398.97 5236.33,2397.13 5236.24,2395.26 5237.13,2392.96"/>
        <lane id=":2176654931_2_2" index="2" disallow="tram rail_urban rail rail_electric rail_fast ship" speed="17.88" length="8.34" shape="5235.42,2401.22 5239.82,2394.69"/>
    </edge>
    <edge id=":2176654931_w0" function="walkingarea">
        <lane id=":2176654931_w0_0" index="0" allow="pedestrian" speed="1.00" length="11.06" width="3.20" shape="5246.55,2399.01 5243.86,2397.28 5243.86,2397.28 5241.17,2395.55 5241.17,2395.55 5238.48,2393.82 5238.48,2393.82 5235.79,2392.09 5235.79,2392.09 5233.09,2390.36 5231.50,2398.46 5234.12,2400.30 5234.12,2400.30 5236.73,2402.14 5236.73,2402.14 5239.35,2403.98 5239.35,2403.98 5241.97,2405.83"/>
    </edge>
    <edge id=":2176654933_0" function="internal">
        <lane id=":2176654933_0_0" index="0" disallow="tram rail_urban rail rail_electric rail_fast ship" speed="17.88" length="7.95" shape="4847.26,3023.29 4842.94,3029.93"/>
        <lane id=":2176654933_0_1" index="1" disallow="tram rail_urban rail rail_electric rail_fast ship" speed="17.88" length="7.95" shape="4844.59,3021.54 4840.25,3028.20"/>
        <lane id=":2176654933_0_2" index="2" disallow="tram rail_urban rail rail_electric rail_fast ship" speed="17.88" length="7.95" shape="4841.91,3019.78 4837.56,3026.46"/>
    </edge>
    <edge id=":2176654933_3" function="internal">
        <lane id=":2176654933_3_0" index="0" disallow="tram rail_urban rail rail_electric rail_fast ship" speed="17.88" length="8.64" shape="4829.49,3021.26 4830.42,3018.90 4830.34,3016.99 4830.27,3015.09 4831.22,3012.75"/>
        <lane id=":2176654933_3_1" index="1" disallow="tram rail_urban rail rail_electric rail_fast ship" speed="17.88" length="8.64" shape="4832.18,3022.99 4833.11,3020.64 4833.03,3018.74 4832.95,3016.85 4833.89,3014.50"/>
        <lane id=":2176654933_3_2" index="2" disallow="tram rail_urban rail rail_electric rail_fast ship" speed="17.88" length="8.64" shape="4834.87,3024.73 4835.79,3022.38 4835.71,3020.49 4835.63,3018.60 4836.57,3016.26"/>
        <lane id=":2176654933_3_3" index="3" disallow="tram rail_urban rail rail_electric rail_fast ship" speed="17.88" length="8.64" shape="4834.87,3024.73 4839.24,3018.02"/>
    </edge>
    <edge id=":2176654933_w0" function="walkingarea">
        <lane id=":2176654933_w0_0" index="0" allow="pedestrian" speed="1.00" length="15.08" width="3.20" shape="4848.60,3024.17 4845.92,3022.41 4845.92,3022.42 4843.25,3020.66 4843.25,3020.66 4840.58,3018.90 4840.58,3018.90 4837.90,3017.14 4837.90,3017.14 4835.23,3015.38 4835.23,3015.38 4832.55,3013.63 4832.55,3013.63 4829.88,3011.87 4828.15,3020.39 4830.84,3022.13 4830.84,3022.13 4833.53,3023.86 4833.53,3023.86 4836.22,3025.59 4836.22,3025.59 4838.91,3027.33 4838.91,3027.33 4841.60,3029.06 4841.60,3029.06 4844.28,3030.80"/>
    </edge>
    <edge id=":2213346068_w0" function="walkingarea">
        <lane id=":2213346068_w0_0" index="0" allow="pedestrian" speed="1.00" length="3.20" width="3.20" shape="4074.58,4681.65 4076.05,4678.81 4073.11,4684.49 4074.58,4681.65"/>
    </edge>
    <edge id=":352895484_w0" function="walkingarea">
        <lane id=":352895484_w0_0" index="0" allow="pedestrian" speed="1.00" length="9.60" width="3.20" shape="6268.81,470.43 6271.60,471.99 6271.60,471.99 6274.40,473.55 6263.22,467.31 6266.02,468.87 6266.02,468.87 6268.81,470.43"/>
    </edge>
    <edge id=":370749970_0" function="internal">
        <lane id=":370749970_0_0" index="0" disallow="tram rail_urban rail rail_electric rail_fast ship" speed="11.17" length="19.93" shape="3201.27,5190.09 3198.18,5187.37 3193.03,5185.11 3187.92,5181.70 3184.92,5175.50"/>
        <lane id=":370749970_0_1" index="1" disallow="tram rail_urban rail rail_electric rail_fast ship" speed="11.17" length="19.93" shape="3201.27,5190.09 3198.65,5187.16 3194.56,5184.52 3190.53,5180.89 3188.08,5175.02"/>
        <lane id=":370749970_0_2" index="2" disallow="tram rail_urban rail rail_electric rail_fast ship" speed="11.17" length="19.93" shape="3201.27,5190.09 3199.13,5186.98 3196.10,5183.99 3193.15,5180.16 3191.24,5174.53"/>
        <lane id=":370749970_0_3" index="3" disallow="tram rail_urban rail rail_electric rail_fast ship" speed="11.17" length="19.93" shape="3201.27,5190.09 3199.61,5186.83 3197.65,5183.55 3195.78,5179.53 3194.40,5174.04"/>
    </edge>
    <edge id=":370749970_4" function="internal">
        <lane id=":370749970_4_0" index="0" disallow="tram rail_urban rail rail_electric rail_fast ship" speed="11.17" length="15.33" shape="3200.73,5173.06 3201.93,5177.23 3203.83,5179.64 3206.44,5181.71 3209.77,5184.87"/>
    </edge>
    <edge id=":370749970_5" function="internal">
        <lane id=":370749970_5_0" index="0" disallow="tram rail_urban rail rail_electric rail_fast ship" speed="11.17" length="17.14" shape="3197.57,5173.55 3198.86,5178.25 3200.88,5181.02 3203.70,5183.42 3207.38,5187.00"/>
    </edge>
    <edge id=":370749970_6" function="internal">
        <lane id=":370749970_6_0" index="0" disallow="tram rail_urban rail rail_electric rail_fast ship" speed="11.17" length="16.87" shape="3197.57,5173.55 3198.89,5178.79 3200.70,5182.59 3202.61,5185.72 3204.25,5188.92"/>
    </edge>
    <edge id=":370749970_w0" function="walkingarea">
        <lane id=":370749970_w0_0" index="0" allow="pedestrian" speed="1.00" length="15.62" width="3.20" shape="3199.78,5190.67 3202.76,5189.50 3202.76,5189.50 3205.74,5188.33 3206.18,5188.06 3208.58,5185.93 3208.58,5185.93 3210.97,5183.81 3202.31,5172.82 3199.15,5173.31 3199.15,5173.31 3195.99,5173.80 3195.99,5173.80 3192.82,5174.28 3192.82,5174.28 3189.66,5174.77 3189.66,5174.77 3186.50,5175.26 3186.50,5175.26 3183.33,5175.75 3197.27,5186.74 3194.09,5184.65 3190.67,5183.45 3187.45,5182.20 3184.86,5179.95"/>
    </edge>
    <edge id=":370753083_w0" function="walkingarea">
        <lane id=":370753083_w0_0" index="0" allow="pedestrian" speed="1.00" length="3.20" width="3.20" shape="3860.58,4835.41 3863.13,4833.48 3858.03,4837.34 3860.58,4835.41"/>
    </edge>
    <edge id=":389039067_w0" function="walkingarea">
        <lane id=":389039067_w0_0" index="0" allow="pedestrian" speed="1.00" length="3.20" width="3.20" shape="3553.25,5150.09 3553.36,5153.29 3553.14,5146.89 3553.25,5150.09"/>
    </edge>
    <edge id=":418507483_0" function="internal">
        <lane id=":418507483_0_0" index="0" disallow="tram rail_urban rail rail_electric rail_fast ship" speed="13.41" length="8.28" shape="4888.67,2843.69 4890.04,2846.08 4892.37,2847.05 4894.55,2848.04 4895.50,2850.45"/>
        <lane id=":418507483_0_1" index="1" disallow="tram rail_urban rail rail_electric rail_fast ship" speed="13.41" length="8.28" shape="4888.67,2843.69 4889.48,2845.80 4890.71,2847.04 4891.83,2848.28 4892.30,2850.42"/>
        <lane id=":418507483_0_2" index="2" disallow="tram rail_urban rail rail_electric rail_fast ship" speed="13.41" length="8.28" shape="4888.67,2843.69 4888.95,2845.66 4889.08,2847.02 4889.12,2848.38 4889.10,2850.38"/>
    </edge>
    <edge id=":418507483_3" function="internal">
        <lane id=":418507483_3_0" index="0" disallow="tram rail_urban rail rail_electric rail_fast ship" speed="13.41" length="6.21" shape="4885.87,2850.34 4885.90,2848.50 4885.88,2847.23 4885.76,2845.98 4885.51,2844.15"/>
    </edge>
    <edge id=":418507483_w0" function="walkingarea">
        <lane id=":418507483_w0_0" index="0" allow="pedestrian" speed="1.00" length="7.94" width="3.20" shape="4890.26,2843.46 4887.09,2843.92 4887.09,2843.92 4883.92,2844.39 4884.27,2850.30 4887.47,2850.37 4887.50,2850.36 4890.70,2850.40 4890.70,2850.40 4893.90,2850.43 4893.90,2850.43 4897.10,2850.47 4891.01,2845.32 4892.36,2846.34 4893.97,2846.95 4895.51,2847.55 4896.66,2848.59"/>
    </edge>
    <edge id=":418510301_0" function="internal">
        <lane id=":418510301_0_0" index="0" disallow="tram rail_urban rail rail_electric rail_fast ship" speed="17.88" length="8.51" shape="4956.44,2846.28 4955.52,2848.60 4955.61,2850.48 4955.70,2852.36 4954.80,2854.69"/>
        <lane id=":418510301_0_1" index="1" disallow="tram rail_urban rail rail_electric rail_fast ship" speed="17.88" length="8.51" shape="4953.76,2844.53 4952.83,2846.86 4952.92,2848.74 4953.01,2850.62 4952.10,2852.96"/>
        <lane id=":418510301_0_2" index="2" disallow="tram rail_urban rail rail_electric rail_fast ship" speed="17.88" length="8.51" shape="4953.76,2844.53 4949.41,2851.23"/>
    </edge>
    <edge id=":418510301_3" function="internal">
        <lane id=":418510301_3_0" index="0" disallow="tram rail_urban rail rail_electric rail_fast ship" speed="17.88" length="8.30" shape="4941.34,2846.04 4943.10,2844.23 4944.86,2843.52 4946.63,2842.83 4948.40,2841.03"/>
        <lane id=":418510301_3_1" index="1" disallow="tram rail_urban rail rail_electric rail_fast ship" speed="17.88" length="8.30" shape="4944.03,2847.77 4948.40,2841.03"/>
        <lane id=":418510301_3_2" index="2" disallow="tram rail_urban rail rail_electric rail_fast ship" speed="17.88" length="8.30" shape="4946.72,2849.50 4951.08,2842.78"/>
    </edge>
    <edge id=":418510301_w0" function="walkingarea">
        <lane id=":418510301_w0_0" index="0" allow="pedestrian" speed="1.00" length="12.17" width="3.20" shape="4957.77,2847.16 4955.10,2845.41 4955.10,2845.41 4952.42,2843.65 4952.42,2843.65 4949.74,2841.90 4949.74,2841.90 4947.06,2840.15 4939.99,2845.17 4942.68,2846.90 4942.68,2846.90 4945.38,2848.63 4945.38,2848.63 4948.07,2850.36 4948.07,2850.36 4950.76,2852.09 4950.76,2852.09 4953.45,2853.82 4953.45,2853.82 4956.14,2855.56 4957.00,2848.77 4956.82,2850.13 4956.95,2851.35 4957.07,2852.57 4956.90,2853.93"/>
    </edge>
    <edge id=":4374241235_0" function="internal">
        <lane id=":4374241235_0_0" index="0" disallow="tram rail_urban rail rail_electric rail_fast ship" speed="11.17" length="8.00" shape="4115.90,4709.55 4109.64,4704.57"/>
    </edge>
    <edge id=":4374241235_1" function="internal">
        <lane id=":4374241235_1_0" index="0" disallow="tram rail_urban rail rail_electric rail_fast ship" speed="11.17" length="8.40" shape="4111.64,4702.07 4113.88,4703.21 4115.76,4703.31 4117.65,4703.41 4119.89,4704.55"/>
        <lane id=":4374241235_1_1" index="1" disallow="tram rail_urban rail rail_electric rail_fast ship" speed="11.17" length="8.40" shape="4111.64,4702.07 4117.90,4707.05"/>
    </edge>
    <edge id=":4374241235_w0" function="walkingarea">
        <lane id=":4374241235_w0_0" index="0" allow="pedestrian" speed="1.00" length="7.51" width="3.20" shape="4114.90,4710.81 4116.90,4708.30 4116.90,4708.30 4118.89,4705.80 4118.89,4705.80 4120.89,4703.30 4112.63,4700.82 4110.64,4703.32 4110.64,4703.32 4108.65,4705.82"/>
    </edge>
    <edge id=":4374241267_0" function="internal">
        <lane id=":4374241267_0_0" index="0" disallow="tram rail_urban rail rail_electric rail_fast ship" speed="15.65" length="17.00" shape="4214.08,4750.57 4216.58,4753.08 4219.47,4755.27 4222.92,4757.82 4227.11,4761.44"/>
    </edge>
    <edge id=":4374241267_1" function="internal">
        <lane id=":4374241267_1_0" index="0" disallow="tram rail_urban rail rail_electric rail_fast ship" speed="13.41" length="16.63" shape="4211.17,4753.93 4215.45,4756.58 4218.41,4758.38 4221.17,4760.41 4224.90,4763.76"/>
        <lane id=":4374241267_1_1" index="1" disallow="tram rail_urban rail rail_electric rail_fast ship" speed="13.41" length="16.63" shape="4209.44,4756.63 4213.57,4759.17 4216.42,4760.90 4219.10,4762.85 4222.69,4766.08"/>
    </edge>
    <edge id=":4374241267_w0" function="walkingarea">
        <lane id=":4374241267_w0_0" index="0" allow="pedestrian" speed="1.00" length="13.01" width="3.20" shape="4221.59,4767.23 4223.80,4764.92 4223.80,4764.92 4226.00,4762.60 4226.00,4762.60 4228.21,4760.28 4215.32,4749.56 4212.83,4751.58 4212.04,4752.59 4210.31,4755.28 4210.31,4755.28 4208.58,4757.97 4219.08,4764.94 4217.14,4763.34 4215.43,4762.16 4213.65,4761.07 4211.47,4759.78"/>
    </edge>
    <edge id=":4977556195_w0" function="walkingarea">
        <lane id=":4977556195_w0_0" index="0" allow="pedestrian" speed="1.00" length="3.20" width="3.20" shape="4929.14,2339.35 4929.11,2336.15 4929.17,2342.55 4929.14,2339.35"/>
    </edge>
    <edge id=":4977726537_0" function="internal">
        <lane id=":4977726537_0_0" index="0" disallow="tram rail_urban rail rail_electric rail_fast ship" speed="11.17" length="8.39" shape="5327.34,2337.05 5324.89,2337.55 5323.36,2338.66 5321.84,2339.78 5319.38,2340.30"/>
        <lane id=":4977726537_0_1" index="1" disallow="tram rail_urban rail rail_electric rail_fast ship" speed="11.17" length="8.39" shape="5327.34,2337.05 5319.35,2337.10"/>
    </edge>
    <edge id=":4977726537_2" function="internal">
        <lane id=":4977726537_2_0" index="0" disallow="tram rail_urban rail rail_electric rail_fast ship" speed="11.17" length="8.01" shape="5319.31,2333.90 5327.33,2333.85"/>
    </edge>
    <edge id=":4977726537_w0" function="walkingarea">
        <lane id=":4977726537_w0_0" index="0" allow="pedestrian" speed="1.00" length="7.51" width="3.20" shape="5327.35,2338.65 5327.33,2335.45 5327.33,2335.45 5327.32,2332.25 5319.30,2332.30 5319.33,2335.50 5319.33,2335.50 5319.37,2338.70 5319.37,2338.70 5319.40,2341.90 5325.56,2338.89 5324.33,2339.49 5323.37,2340.26 5322.41,2341.04 5321.18,2341.65"/>
    </edge>
    <edge id=":4977726539_0" function="internal">
        <lane id=":4977726539_0_0" index="0" disallow="tram rail_urban rail rail_electric rail_fast ship" speed="13.41" length="8.00" shape="5234.64,2337.85 5226.64,2337.91"/>
    </edge>
    <edge id=":4977726539_1" function="internal">
        <lane id=":4977726539_1_0" index="0" disallow="tram rail_urban rail rail_electric rail_fast ship" speed="13.41" length="8.40" shape="5226.62,2334.71 5229.08,2334.19 5230.61,2333.08 5232.14,2331.97 5234.59,2331.45"/>
        <lane id=":4977726539_1_1" index="1" disallow="tram rail_urban rail rail_electric rail_fast ship" speed="13.41" length="8.40" shape="5226.62,2334.71 5234.62,2334.65"/>
    </edge>
    <edge id=":4977726539_w0" function="walkingarea">
        <lane id=":4977726539_w0_0" index="0" allow="pedestrian" speed="1.00" length="7.51" width="3.20" shape="5234.65,2339.45 5234.63,2336.25 5234.63,2336.25 5234.61,2333.05 5234.61,2333.05 5234.58,2329.85 5226.61,2333.11 5226.63,2336.31 5226.63,2336.31 5226.65,2339.51"/>
    </edge>
    <edge id=":5271377344_w0" function="walkingarea">
        <lane id=":5271377344_w0_0" index="0" allow="pedestrian" speed="1.00" length="9.60" width="3.20" shape="4070.45,4256.14 4070.41,4252.94 4070.41,4252.94 4070.38,4249.74 4070.52,4262.54 4070.49,4259.34 4070.49,4259.34 4070.45,4256.14"/>
    </edge>
    <edge id=":5851549537_0" function="internal">
        <lane id=":5851549537_0_0" index="0" disallow="tram rail_urban rail rail_electric rail_fast ship" speed="11.17" length="9.21" shape="4747.69,3238.57 4745.08,3239.62 4743.82,3241.85 4742.54,3244.08 4739.87,3245.15"/>
        <lane id=":5851549537_0_1" index="1" disallow="tram rail_urban rail rail_electric rail_fast ship" speed="11.17" length="9.21" shape="4747.69,3238.57 4745.25,3239.12 4743.74,3240.25 4742.23,3241.39 4739.78,3241.96"/>
        <lane id=":5851549537_0_2" index="2" disallow="tram rail_urban rail rail_electric rail_fast ship" speed="11.17" length="9.21" shape="4747.69,3238.57 4739.70,3238.76"/>
    </edge>
    <edge id=":5851549537_3" function="internal">
        <lane id=":5851549537_3_0" index="0" disallow="tram rail_urban rail rail_electric rail_fast ship" speed="11.17" length="8.02" shape="4739.61,3235.56 4747.62,3235.37"/>
    </edge>
    <edge id=":5851549537_w0" function="walkingarea">
        <lane id=":5851549537_w0_0" index="0" allow="pedestrian" speed="1.00" length="8.69" width="3.20" shape="4747.72,3240.17 4747.66,3236.97 4747.66,3236.97 4747.59,3233.77 4739.57,3233.96 4739.65,3237.16 4739.65,3237.16 4739.74,3240.36 4739.74,3240.36 4739.82,3243.56 4739.82,3243.56 4739.91,3246.75 4745.73,3240.68 4744.56,3241.89 4743.82,3243.45 4743.07,3245.01 4741.91,3246.23"/>
    </edge>
    <edge id=":5851549540_0" function="internal">